[General]
cmdenv-express-mode = true
cmdenv-autoflush = true
cmdenv-status-frequency = 5s
record-eventlog = true
**.cmdenv-log-level = info

ned-path = .
image-path = ../../images

network = FCScenario

##########################################################
#            Simulation parameters                       #
##########################################################
debug-on-errors = true
print-undisposed = false

sim-time-limit = 20s

**.scalar-recording = true
**.vector-recording = true

**.debug = false
**.coreDebug = false

*.playgroundSizeX = 250m
*.playgroundSizeY = 250m
*.playgroundSizeZ = 50m




##########################################################
# Annotation parameters                                  #
##########################################################
*.annotations.draw = true


##########################################################
#            TraCIScenarioManager parameters             #
##########################################################
*.manager.updateInterval = 1s
*.manager.host = "localhost"
*.manager.port = 9999
*.manager.autoShutdown = true
*.manager.launchConfig = xmldoc("erlangen.launchd.xml")


##########################################################
#            11p specific parameters                     #
#                                                        #
#                    NIC-Settings                        #
##########################################################
*.connectionManager.sendDirect = true
*.connectionManager.maxInterfDist = 2600m
*.connectionManager.drawMaxIntfDist = false

*.**.nic.mac1609_4.useServiceChannel = false

*.**.nic.mac1609_4.txPower = 200mW
*.**.nic.mac1609_4.bitrate = 6Mbps
*.**.nic.phy80211p.sensitivity = -89dBm

*.**.nic.phy80211p.useThermalNoise = true
*.**.nic.phy80211p.thermalNoise = -110dBm

*.**.nic.phy80211p.decider = xmldoc("config.xml")
*.**.nic.phy80211p.analogueModels = xmldoc("config.xml")
*.**.nic.phy80211p.usePropagationDelay = true

*.**.nic.phy80211p.antenna = xmldoc("antenna.xml", "/root/Antenna[@id='monopole']")
##########################################################
#            TraCIScenarioManager parameters             #
##########################################################
*.manager.updateInterval = 1s
*.manager.host = "localhost"
*.manager.port = 9999
*.manager.autoShutdown = true
*.manager.launchConfig = xmldoc("erlangen.launchd.xml")
##########################################################
#                    WaveAppLayer                        #
##########################################################
*.vehicleNumbers = 2
*.node[*].applType = "org.car2x.veins.modules.application.traci.FullyConnApp"
*.node[*].appl.headerLength = 80 bit
*.node[*].appl.sendBeacons = true
*.node[*].appl.dataOnSch = false
*.node[*].appl.useServiceChannel =false
*.node[*].appl.beaconInterval = 0.001s
*.node[*].appl.beaconLengthBits = 4000 bit
##########################################################
#                      Mobility                          #
##########################################################
*.node[*].veinsmobilityType = "org.car2x.veins.modules.mobility.LinearMobility"
*.node[*].veinsmobilityType.debug = true
*.node[*].veinsmobility.x = uniform(0, 25)
*.node[*].veinsmobility.y = uniform(0, 25)
*.node[*].veinsmobility.z = 20
*.node[*].veinsmobility.speed = 1mps
*.node[*].veinsmobility.acceleration = 0
*.node[*].veinsmobility.angle = uniform(0deg, 360deg)
*.node[*].veinsmobility.updateInterval = 0.1s
#*.node[*].veinsmobility.x = 0
#*.node[*].veinsmobility.y = 0
#*.node[*].veinsmobility.z = 1.895
#*.node[*0].veinsmobility.accidentCount = 1
#*.node[*0].veinsmobility.accidentStart = 75s
#*.node[*0].veinsmobility.accidentDuration = 50s


